Version 4
SHEET 1 880 680
FLAG 112 176 0
FLAG 0 0 0
